
	Building GPGPU-Sim version 3.2.2 (build ) with CUDA version 3.2

if [ ! -d lib/gcc-4.7.4/cuda-3020/release ]; then mkdir -p lib/gcc-4.7.4/cuda-3020/release; fi;
if [ ! -d /mnt/d/source/github/sim/gem5-gpu/gpgpu-sim_distribution/build/gcc-4.7.4/cuda-3020/release/libcuda ]; then mkdir -p /mnt/d/source/github/sim/gem5-gpu/gpgpu-sim_distribution/build/gcc-4.7.4/cuda-3020/release/libcuda; fi;
if [ ! -d /mnt/d/source/github/sim/gem5-gpu/gpgpu-sim_distribution/build/gcc-4.7.4/cuda-3020/release/cuda-sim ]; then mkdir -p /mnt/d/source/github/sim/gem5-gpu/gpgpu-sim_distribution/build/gcc-4.7.4/cuda-3020/release/cuda-sim; fi;
if [ ! -d /mnt/d/source/github/sim/gem5-gpu/gpgpu-sim_distribution/build/gcc-4.7.4/cuda-3020/release/cuda-sim/decuda_pred_table ]; then mkdir -p /mnt/d/source/github/sim/gem5-gpu/gpgpu-sim_distribution/build/gcc-4.7.4/cuda-3020/release/cuda-sim/decuda_pred_table; fi;
if [ ! -d /mnt/d/source/github/sim/gem5-gpu/gpgpu-sim_distribution/build/gcc-4.7.4/cuda-3020/release/gpgpu-sim ]; then mkdir -p /mnt/d/source/github/sim/gem5-gpu/gpgpu-sim_distribution/build/gcc-4.7.4/cuda-3020/release/gpgpu-sim; fi;
if [ ! -d /mnt/d/source/github/sim/gem5-gpu/gpgpu-sim_distribution/build/gcc-4.7.4/cuda-3020/release/libopencl ]; then mkdir -p /mnt/d/source/github/sim/gem5-gpu/gpgpu-sim_distribution/build/gcc-4.7.4/cuda-3020/release/libopencl; fi;
if [ ! -d /mnt/d/source/github/sim/gem5-gpu/gpgpu-sim_distribution/build/gcc-4.7.4/cuda-3020/release/libopencl/bin ]; then mkdir -p /mnt/d/source/github/sim/gem5-gpu/gpgpu-sim_distribution/build/gcc-4.7.4/cuda-3020/release/libopencl/bin; fi;
if [ ! -d /mnt/d/source/github/sim/gem5-gpu/gpgpu-sim_distribution/build/gcc-4.7.4/cuda-3020/release/intersim2 ]; then mkdir -p /mnt/d/source/github/sim/gem5-gpu/gpgpu-sim_distribution/build/gcc-4.7.4/cuda-3020/release/intersim2; fi;
if [ ! -d /mnt/d/source/github/sim/gem5-gpu/gpgpu-sim_distribution/build/gcc-4.7.4/cuda-3020/release/cuobjdump_to_ptxplus ]; then mkdir -p /mnt/d/source/github/sim/gem5-gpu/gpgpu-sim_distribution/build/gcc-4.7.4/cuda-3020/release/cuobjdump_to_ptxplus; fi;
if [ ! -d /mnt/d/source/github/sim/gem5-gpu/gpgpu-sim_distribution/build/gcc-4.7.4/cuda-3020/release/gpuwattch ]; then mkdir -p /mnt/d/source/github/sim/gem5-gpu/gpgpu-sim_distribution/build/gcc-4.7.4/cuda-3020/release/gpuwattch; fi;
if [ ! -d /mnt/d/source/github/sim/gem5-gpu/gpgpu-sim_distribution/build/gcc-4.7.4/cuda-3020/release/gpuwattch/cacti ]; then mkdir -p /mnt/d/source/github/sim/gem5-gpu/gpgpu-sim_distribution/build/gcc-4.7.4/cuda-3020/release/gpuwattch/cacti; fi;
make -C ./src/cuda-sim/ depend
make[1]: Entering directory '/mnt/d/source/github/sim/gem5-gpu/gpgpu-sim_distribution/src/cuda-sim'
Makefile:149: /mnt/d/source/github/sim/gem5-gpu/gpgpu-sim_distribution/build/gcc-4.7.4/cuda-3020/release/cuda-sim/Makefile.makedepend: No such file or directory
touch /mnt/d/source/github/sim/gem5-gpu/gpgpu-sim_distribution/build/gcc-4.7.4/cuda-3020/release/cuda-sim/Makefile.makedepend
makedepend -f/mnt/d/source/github/sim/gem5-gpu/gpgpu-sim_distribution/build/gcc-4.7.4/cuda-3020/release/cuda-sim/Makefile.makedepend -p/mnt/d/source/github/sim/gem5-gpu/gpgpu-sim_distribution/build/gcc-4.7.4/cuda-3020/release/cuda-sim/ cuda_device_printf.cc cuda-sim.cc instructions.cc memory.cc ptx_ir.cc ptx_loader.cc ptx_parser.cc ptx_sim.cc ptx-stats.cc 2> /dev/null
make[1]: 'depend' is up to date.
make[1]: Leaving directory '/mnt/d/source/github/sim/gem5-gpu/gpgpu-sim_distribution/src/cuda-sim'
make -C ./src/cuda-sim/
make[1]: Entering directory '/mnt/d/source/github/sim/gem5-gpu/gpgpu-sim_distribution/src/cuda-sim'
touch /mnt/d/source/github/sim/gem5-gpu/gpgpu-sim_distribution/build/gcc-4.7.4/cuda-3020/release/cuda-sim/Makefile.makedepend
makedepend -f/mnt/d/source/github/sim/gem5-gpu/gpgpu-sim_distribution/build/gcc-4.7.4/cuda-3020/release/cuda-sim/Makefile.makedepend -p/mnt/d/source/github/sim/gem5-gpu/gpgpu-sim_distribution/build/gcc-4.7.4/cuda-3020/release/cuda-sim/ cuda_device_printf.cc cuda-sim.cc instructions.cc memory.cc ptx_ir.cc ptx_loader.cc ptx_parser.cc ptx_sim.cc ptx-stats.cc 2> /dev/null
bison --name-prefix=ptx_ -v -d ptx.y --file-prefix=/mnt/d/source/github/sim/gem5-gpu/gpgpu-sim_distribution/build/gcc-4.7.4/cuda-3020/release/cuda-sim/ptx
ptx.y: warning: 1 reduce/reduce conflict [-Wconflicts-rr]
cat /mnt/d/source/github/sim/gem5-gpu/gpgpu-sim_distribution/build/gcc-4.7.4/cuda-3020/release/cuda-sim/ptx.tab.h | grep "=" | sed 's/^[ ]\+//' | sed 's/[=,]//g' | sed 's/\([_A-Z1-9]\+\)[ ]\+\([0-9]\+\)/\1 \1/' | sed 's/^/DEF(/' | sed 's/ /,"/' | sed 's/$/")/' > /mnt/d/source/github/sim/gem5-gpu/gpgpu-sim_distribution/build/gcc-4.7.4/cuda-3020/release/cuda-sim/ptx_parser_decode.def
g++  -c -O3 -g3 -Wall -Wno-unused-function -Wno-sign-compare -I/usr/local/cuda//include  -I/mnt/d/source/github/sim/gem5-gpu/gpgpu-sim_distribution/build/gcc-4.7.4/cuda-3020/release/cuda-sim/ -I. -fPIC  -DTRACING_ON=1 -DCUDART_VERSION=3020 -std=c++0x ptx_parser.cc -o /mnt/d/source/github/sim/gem5-gpu/gpgpu-sim_distribution/build/gcc-4.7.4/cuda-3020/release/cuda-sim/ptx_parser.o
ptx_parser.cc:34:37: fatal error: gpu/gpgpu-sim/cuda_gpu.hh: No such file or directory
compilation terminated.
Makefile:116: recipe for target '/mnt/d/source/github/sim/gem5-gpu/gpgpu-sim_distribution/build/gcc-4.7.4/cuda-3020/release/cuda-sim/ptx_parser.o' failed
make[1]: *** [/mnt/d/source/github/sim/gem5-gpu/gpgpu-sim_distribution/build/gcc-4.7.4/cuda-3020/release/cuda-sim/ptx_parser.o] Error 1
make[1]: Leaving directory '/mnt/d/source/github/sim/gem5-gpu/gpgpu-sim_distribution/src/cuda-sim'
Makefile:191: recipe for target 'cuda-sim' failed
make: *** [cuda-sim] Error 2
